Version 4
SHEET 1 880 768
FLAG 256 704 0
FLAG 96 704 0
FLAG -48 704 0
FLAG -48 576 Vdd
FLAG 96 576 Vdd/2
FLAG 256 576 Vsignal1
FLAG 544 704 0
FLAG 544 576 Vsignal2
SYMBOL cktsym\\vsource -48 640 R0
SYMATTR Value 3.3
SYMATTR InstName Vdd1
SYMBOL cktsym\\vsource 96 640 R0
SYMATTR Value 1.65
SYMATTR InstName Vdd2
SYMBOL cktsym\\vsource 256 640 R0
WINDOW 123 0 0 Left 0
WINDOW 39 0 0 Left 0
SYMATTR Value SINE(.15 .15 50)
SYMATTR InstName Vsignal1
SYMBOL cktsym\\vsource 544 640 R0
WINDOW 123 0 0 Left 0
WINDOW 39 0 0 Left 0
SYMATTR Value SINE(.15 .20 50)
SYMATTR InstName Vsignal2
SYMBOL MCP6N11 192 144 R0
SYMATTR InstName X1
TEXT -240 704 Left 2 !.tran 0 1 0
