Version 4
SHEET 1 880 768
WIRE -32 -32 -32 -112
WIRE -32 64 -32 48
WIRE 368 64 -32 64
WIRE -32 96 -32 64
WIRE 128 176 -32 176
WIRE 400 176 320 176
WIRE -32 208 -112 208
WIRE 128 208 -32 208
WIRE 368 208 368 64
WIRE 368 208 320 208
WIRE 368 240 320 240
WIRE -112 256 -112 208
WIRE -32 256 -32 208
WIRE 128 272 112 272
WIRE -112 352 -112 320
WIRE -80 352 -112 352
WIRE -32 352 -32 320
WIRE -32 352 -80 352
WIRE -80 384 -80 352
FLAG -80 384 0
FLAG 368 240 Vdd/2
FLAG -32 -112 Vdd/2
FLAG 400 176 Vsignal2
FLAG 112 272 Vsignal1
FLAG 256 704 0
FLAG 96 704 0
FLAG -48 704 0
FLAG -48 576 Vdd
FLAG 96 576 Vdd/2
FLAG 256 576 Vsignal1
FLAG 544 704 0
FLAG 544 576 Vsignal2
SYMBOL res -48 80 R0
SYMATTR InstName R1
SYMATTR Value 100K
SYMBOL res -48 -48 R0
SYMATTR InstName R2
SYMATTR Value 10K
SYMBOL cap -48 256 R0
SYMATTR InstName C1
SYMATTR Value 0.1µF
SYMBOL cap -128 256 R0
SYMATTR InstName C2
SYMATTR Value 1µF
SYMBOL cktsym\\vsource -48 640 R0
SYMATTR Value 3.3
SYMATTR InstName Vdd1
SYMBOL cktsym\\vsource 96 640 R0
SYMATTR Value 1.65
SYMATTR InstName Vdd2
SYMBOL cktsym\\vsource 256 640 R0
WINDOW 123 0 0 Left 0
WINDOW 39 0 0 Left 0
SYMATTR Value SINE(.15 .15 50)
SYMATTR InstName Vsignal1
SYMBOL cktsym\\vsource 544 640 R0
WINDOW 123 0 0 Left 0
WINDOW 39 0 0 Left 0
SYMATTR Value SINE(.15 .20 50)
SYMATTR InstName Vsignal2
SYMBOL cktsym\\MCP6N11 224 224 R0
SYMATTR InstName U1
TEXT -240 704 Left 2 !;tran 0 1 0
TEXT -240 752 Left 2 !.ac lin 100 1Hz 1000Hz
