Version 4
SHEET 1 1884 680
WIRE 1408 -592 1344 -592
WIRE 1568 -592 1472 -592
WIRE 1344 -496 1344 -592
WIRE 1408 -496 1344 -496
WIRE 1568 -496 1568 -592
WIRE 1568 -496 1488 -496
WIRE 512 -464 320 -464
WIRE 672 -464 592 -464
WIRE 928 -464 672 -464
WIRE 1568 -464 1568 -496
WIRE 928 -368 928 -464
WIRE 1216 -336 1152 -336
WIRE 1344 -336 1344 -496
WIRE 1344 -336 1296 -336
WIRE 928 -304 912 -304
WIRE 1648 -304 1568 -304
WIRE 1792 -304 1728 -304
WIRE 672 -288 672 -336
WIRE 1216 -272 1200 -272
WIRE 1344 -272 1296 -272
WIRE 192 -256 160 -256
WIRE 224 -256 192 -256
WIRE 320 -256 320 -464
WIRE 320 -256 304 -256
WIRE 448 -256 320 -256
WIRE 672 -256 672 -288
WIRE -336 -224 -496 -224
WIRE -192 -224 -256 -224
WIRE -96 -224 -128 -224
WIRE -64 -224 -96 -224
WIRE 1200 -192 1200 -272
WIRE 1344 -144 1344 -272
WIRE 1408 -144 1344 -144
WIRE 1568 -144 1568 -304
WIRE 1568 -144 1488 -144
WIRE 448 -128 448 -256
WIRE 496 -128 448 -128
WIRE 672 -128 576 -128
WIRE 832 -128 672 -128
WIRE 912 -128 912 -304
WIRE 1072 -128 912 -128
WIRE 1152 -128 1152 -336
WIRE -96 -96 -96 -224
WIRE 0 -96 -96 -96
WIRE 192 -96 192 -256
WIRE 192 -96 80 -96
WIRE 1344 -48 1344 -144
WIRE 1408 -48 1344 -48
WIRE 1568 -48 1568 -144
WIRE 1568 -48 1472 -48
FLAG -64 -288 Vdd/2
FLAG 48 -176 0
FLAG 48 -336 Vdd
FLAG 448 -320 Vdd/2
FLAG 560 -208 0
FLAG 560 -368 Vdd
FLAG 1040 -256 0
FLAG 1040 -416 Vdd
FLAG 1456 -384 Vdd
FLAG 1456 -224 0
FLAG 1792 -304 Vout
FLAG 1792 -240 0
FLAG 1568 -464 0
FLAG 672 272 0
FLAG 512 272 0
FLAG 368 272 0
FLAG 368 144 Vdd
FLAG 512 144 Vdd/2
FLAG 672 144 Vsignal
FLAG 1200 -192 Vdd/2
FLAG -496 -224 Vsignal
SYMBOL res -352 -240 M90
WINDOW 0 0 56 VBottom 2
WINDOW 3 32 56 VTop 2
SYMATTR InstName R2
SYMATTR Value 787
SYMBOL cap -128 -240 R90
WINDOW 0 0 32 VBottom 2
WINDOW 3 32 32 VTop 2
SYMATTR InstName C2
SYMATTR Value 10µ
SYMBOL cktsym\\opamprails 32 -256 R0
SYMATTR InstName U1
SYMBOL res 96 -112 R90
WINDOW 0 0 56 VBottom 2
WINDOW 3 32 56 VTop 2
SYMATTR InstName R3
SYMATTR Value 8.1k
SYMBOL res 320 -272 R90
WINDOW 0 0 56 VBottom 2
WINDOW 3 32 56 VTop 2
SYMATTR InstName R1
SYMATTR Value 10k
SYMBOL cktsym\\opamprails 544 -288 R0
SYMATTR InstName U2
SYMBOL cktsym\\diode 672 -192 R180
WINDOW 3 44 -16 Left 2
WINDOW 0 44 16 Left 2
SYMATTR InstName D1
SYMBOL cktsym\\diode 672 -400 R180
WINDOW 3 44 -16 Left 2
WINDOW 0 44 16 Left 2
SYMATTR InstName D2
SYMBOL res 592 -144 R90
WINDOW 0 0 56 VBottom 2
WINDOW 3 32 56 VTop 2
SYMATTR InstName R4
SYMATTR Value 10k
SYMBOL res 608 -480 R90
WINDOW 0 0 56 VBottom 2
WINDOW 3 32 56 VTop 2
SYMATTR InstName R5
SYMATTR Value 10k
SYMBOL res 928 -144 R90
WINDOW 0 0 56 VBottom 2
WINDOW 3 32 56 VTop 2
SYMATTR InstName R6
SYMATTR Value 10k
SYMBOL res 1168 -144 R90
WINDOW 0 0 56 VBottom 2
WINDOW 3 32 56 VTop 2
SYMATTR InstName R7
SYMATTR Value 10k
SYMBOL cktsym\\opamprails 1024 -336 R0
SYMATTR InstName U3
SYMBOL cktsym\\opamprails 1440 -304 R0
SYMATTR InstName U4
SYMBOL res 1312 -352 R90
WINDOW 0 0 75 VBottom 2
WINDOW 3 -29 32 VTop 2
SYMATTR InstName R8
SYMATTR Value 453
SYMBOL res 1312 -288 R90
WINDOW 0 88 68 VBottom 2
WINDOW 3 61 20 VTop 2
SYMATTR InstName R9
SYMATTR Value 453
SYMBOL res 1504 -160 R90
WINDOW 0 1 80 VBottom 2
WINDOW 3 -26 40 VTop 2
SYMATTR InstName R10
SYMATTR Value 909
SYMBOL res 1504 -512 R90
WINDOW 0 1 78 VBottom 2
WINDOW 3 -27 33 VTop 2
SYMATTR InstName R11
SYMATTR Value 909
SYMBOL cap 1472 -64 R90
WINDOW 0 0 32 VBottom 2
WINDOW 3 32 32 VTop 2
SYMATTR InstName C1
SYMATTR Value .33µF
SYMBOL cap 1472 -608 R90
WINDOW 0 0 32 VBottom 2
WINDOW 3 32 32 VTop 2
SYMATTR InstName C3
SYMATTR Value .33µF
SYMBOL res 1744 -320 R90
WINDOW 0 0 56 VBottom 2
WINDOW 3 32 56 VTop 2
SYMATTR InstName R12
SYMATTR Value 9090
SYMBOL cap 1776 -304 R0
WINDOW 0 -26 51 Left 2
SYMATTR InstName C4
SYMATTR Value .033µF
SYMBOL cktsym\\vsource 368 208 R0
SYMATTR Value 3.3
SYMATTR InstName Vdd
SYMBOL cktsym\\vsource 512 208 R0
SYMATTR Value 1.65
SYMATTR InstName Vdd/2
SYMBOL cktsym\\vsource 672 208 R0
WINDOW 123 0 0 Left 0
WINDOW 39 0 0 Left 0
SYMATTR Value SINE(.15 .15 5000)
SYMATTR InstName Vsignal
TEXT 1016 224 Left 2 !.tran 0 1 0
