Version 4
SHEET 1 884 680
WIRE 368 208 336 208
WIRE -160 240 -224 240
WIRE -16 240 -80 240
WIRE 80 240 48 240
WIRE 112 240 80 240
WIRE 80 368 80 240
WIRE 176 368 80 368
WIRE 368 368 368 208
WIRE 368 368 256 368
FLAG 752 80 0
FLAG 752 272 0
FLAG 752 464 0
FLAG 752 -48 Vdd
FLAG 752 336 V3
FLAG 752 144 V2
FLAG 112 176 V2
FLAG -224 240 V3
FLAG 224 288 0
FLAG 224 128 Vdd
SYMBOL cktsym\\vsource 752 16 R0
SYMATTR Value 3.3
SYMATTR InstName Vdd
SYMBOL cktsym\\vsource 752 208 R0
SYMATTR Value 1.65
SYMATTR InstName V2
SYMBOL cktsym\\vsource 752 400 R0
WINDOW 3 50 40 Left 2
WINDOW 123 48 12 Left 2
WINDOW 39 0 0 Left 0
SYMATTR Value SINE()
SYMATTR Value2 AC 1 0
SYMATTR InstName V3
SYMBOL res -176 224 M90
WINDOW 0 0 56 VBottom 2
WINDOW 3 32 56 VTop 2
SYMATTR InstName R1
SYMATTR Value 787
SYMBOL cap 48 224 R90
WINDOW 0 0 32 VBottom 2
WINDOW 3 32 32 VTop 2
SYMATTR InstName C1
SYMATTR Value 10µ
SYMBOL cktsym\\opamprails 208 208 R0
SYMATTR InstName U1
SYMBOL res 272 352 R90
WINDOW 0 0 56 VBottom 2
WINDOW 3 32 56 VTop 2
SYMATTR InstName R2
SYMATTR Value 8.1k
TEXT -272 488 Left 2 !.ac lin 100 1 1k
