Version 4
SHEET 1 1068 680
WIRE 208 -96 144 -96
WIRE 368 -96 272 -96
WIRE 144 0 144 -96
WIRE 208 0 144 0
WIRE 368 0 368 -96
WIRE 368 0 288 0
WIRE 368 32 368 0
WIRE 144 160 144 0
WIRE 144 160 96 160
WIRE 448 192 368 192
WIRE 592 192 528 192
WIRE 144 224 96 224
WIRE 144 352 144 224
WIRE 208 352 144 352
WIRE 368 352 368 192
WIRE 368 352 288 352
WIRE 144 448 144 352
WIRE 208 448 144 448
WIRE 368 448 368 352
WIRE 368 448 272 448
FLAG -320 208 0
FLAG -320 16 0
FLAG -320 -112 V1
FLAG -320 80 V2
FLAG -320 416 0
FLAG -320 288 Vdd
FLAG 256 112 Vdd
FLAG 256 272 0
FLAG 16 160 V1
FLAG 16 224 V2
FLAG 592 192 Vout
FLAG 592 256 0
FLAG 368 32 0
SYMBOL cktsym\\vsource -320 -48 R0
WINDOW 123 0 0 Left 0
WINDOW 39 0 0 Left 0
SYMATTR Value SINE(2.475 0.825 20)
SYMATTR InstName V1
SYMBOL cktsym\\vsource -320 144 R0
SYMATTR Value 1.65V
SYMATTR InstName V2
SYMBOL cktsym\\vsource -320 352 R0
SYMATTR Value 3.3V
SYMATTR InstName V3
SYMBOL cktsym\\opamprails 240 192 R0
SYMATTR InstName U3
SYMBOL res 112 144 R90
WINDOW 0 0 75 VBottom 2
WINDOW 3 -29 32 VTop 2
SYMATTR InstName R5
SYMATTR Value 453
SYMBOL res 112 208 R90
WINDOW 0 60 83 VBottom 2
WINDOW 3 33 40 VTop 2
SYMATTR InstName R6
SYMATTR Value 453
SYMBOL res 304 336 R90
WINDOW 0 1 80 VBottom 2
WINDOW 3 -26 40 VTop 2
SYMATTR InstName R7
SYMATTR Value 909
SYMBOL res 304 -16 R90
WINDOW 0 1 78 VBottom 2
WINDOW 3 -27 33 VTop 2
SYMATTR InstName R8
SYMATTR Value 909
SYMBOL cap 272 432 R90
WINDOW 0 0 32 VBottom 2
WINDOW 3 32 32 VTop 2
SYMATTR InstName C1
SYMATTR Value .33µF
SYMBOL cap 272 -112 R90
WINDOW 0 0 32 VBottom 2
WINDOW 3 32 32 VTop 2
SYMATTR InstName C2
SYMATTR Value .33µF
SYMBOL res 544 176 R90
WINDOW 0 0 56 VBottom 2
WINDOW 3 32 56 VTop 2
SYMATTR InstName R1
SYMATTR Value 9090
SYMBOL cap 576 192 R0
WINDOW 0 -26 51 Left 2
SYMATTR InstName C3
SYMATTR Value .033µF
TEXT -352 456 Left 2 !.tran 0 1 0
