Version 4
SHEET 1 1360 1060
WIRE 560 160 400 160
WIRE 400 192 400 160
WIRE 400 192 304 192
WIRE 800 192 784 192
WIRE 880 192 800 192
WIRE 1024 192 960 192
WIRE 1120 192 1024 192
WIRE 1200 192 1120 192
WIRE -64 224 -128 224
WIRE 64 224 16 224
WIRE 80 224 64 224
WIRE 1024 224 1024 192
WIRE 1120 224 1120 192
WIRE 400 240 400 192
WIRE 1024 336 1024 304
WIRE 1120 336 1120 288
WIRE 560 352 560 224
WIRE 800 352 800 192
WIRE 800 352 560 352
WIRE 64 368 64 224
WIRE 208 368 64 368
WIRE 400 368 400 304
WIRE 400 368 288 368
FLAG 528 640 0
FLAG 528 832 0
FLAG 528 1040 0
FLAG 528 512 Vdd
FLAG 528 704 V2
FLAG 528 912 V3
FLAG 192 272 0
FLAG 192 112 Vdd
FLAG 80 160 V2
FLAG -128 224 V3
FLAG 672 272 0
FLAG 672 112 Vdd
FLAG 1024 336 0
FLAG 1120 336 0
SYMBOL cktsym\\opamprails 176 192 R0
SYMATTR InstName U1
SYMBOL cktsym\\vsource 528 576 R0
SYMATTR Value 3.3
SYMATTR InstName Vdd
SYMBOL cktsym\\vsource 528 768 R0
SYMATTR Value 1.65
SYMATTR InstName V2
SYMBOL cktsym\\vsource 528 976 R0
WINDOW 3 47 38 Left 2
WINDOW 123 48 12 Left 2
WINDOW 39 0 0 Left 0
SYMATTR Value SINE(1.65 1.65 40)
SYMATTR InstName V3
SYMBOL res 32 208 R90
WINDOW 0 0 56 VBottom 2
WINDOW 3 32 56 VTop 2
SYMATTR InstName R1
SYMATTR Value 200
SYMBOL res 304 352 R90
WINDOW 0 0 56 VBottom 2
WINDOW 3 32 56 VTop 2
SYMATTR InstName R2
SYMATTR Value 200
SYMBOL diode 384 240 R0
SYMATTR InstName D1
SYMBOL cktsym\\opamprails 656 192 R0
SYMATTR InstName U2
SYMBOL res 976 176 R90
WINDOW 0 0 56 VBottom 2
WINDOW 3 32 56 VTop 2
SYMATTR InstName R3
SYMATTR Value 453
SYMBOL res 1008 208 R0
SYMATTR InstName R4
SYMATTR Value 909
SYMBOL cap 1104 224 R0
SYMATTR InstName C1
SYMATTR Value 0.33µ
TEXT -174 504 Left 2 !.tran 0 0.1 0 startup
