Version 4
SHEET 1 880 680
WIRE 400 192 304 192
WIRE -64 224 -128 224
WIRE 64 224 16 224
WIRE 80 224 64 224
WIRE 400 240 400 192
WIRE 64 368 64 224
WIRE 208 368 64 368
WIRE 400 368 400 304
WIRE 400 368 288 368
FLAG 640 80 0
FLAG 640 272 0
FLAG 640 480 0
FLAG 640 -48 Vdd
FLAG 640 144 V2
FLAG 640 352 V3
FLAG 192 272 0
FLAG 192 112 Vdd
FLAG 80 160 V2
FLAG -128 224 V3
SYMBOL cktsym\\opamprails 176 192 R0
SYMATTR InstName U1
SYMBOL cktsym\\vsource 640 16 R0
SYMATTR Value 3.3
SYMATTR InstName Vdd
SYMBOL cktsym\\vsource 640 208 R0
SYMATTR Value 1.65
SYMATTR InstName V2
SYMBOL cktsym\\vsource 640 416 R0
WINDOW 3 47 38 Left 2
WINDOW 123 48 12 Left 2
WINDOW 39 0 0 Left 0
SYMATTR Value SINE()
SYMATTR InstName V3
SYMATTR Value2 AC 1 0
SYMBOL res 32 208 R90
WINDOW 0 0 56 VBottom 2
WINDOW 3 32 56 VTop 2
SYMATTR InstName R1
SYMATTR Value 200
SYMBOL res 304 352 R90
WINDOW 0 0 56 VBottom 2
WINDOW 3 32 56 VTop 2
SYMATTR InstName R2
SYMATTR Value 200
SYMBOL diode 384 240 R0
SYMATTR InstName D1
