Version 4
SHEET 1 2528 1012
WIRE 96 80 32 80
WIRE 256 80 96 80
WIRE 96 96 96 80
WIRE 256 96 256 80
WIRE 1088 176 1040 176
WIRE 1264 176 1216 176
WIRE 96 240 96 224
WIRE 256 240 256 224
WIRE 1040 304 1040 176
WIRE 1088 304 1040 304
WIRE 1264 304 1264 176
WIRE 1264 304 1216 304
WIRE 1488 304 1440 304
WIRE 1664 304 1616 304
WIRE 96 320 32 320
WIRE 256 320 96 320
WIRE 512 320 448 320
WIRE 704 320 640 320
WIRE 768 320 704 320
WIRE 848 320 784 320
WIRE 1040 320 1040 304
WIRE 1264 320 1264 304
WIRE 1440 320 1440 304
WIRE 1664 320 1664 304
WIRE 96 336 96 320
WIRE 256 336 256 320
WIRE 448 336 448 320
WIRE 704 336 704 320
WIRE 848 352 848 320
WIRE 2016 400 1840 400
WIRE 2192 400 2016 400
WIRE 2288 400 2192 400
WIRE 1840 416 1840 400
WIRE 2016 416 2016 400
WIRE 2192 416 2192 400
WIRE 1040 464 1040 448
WIRE 1264 464 1264 448
WIRE 1440 464 1440 448
WIRE 1664 464 1664 448
WIRE 96 480 96 464
WIRE 256 480 256 464
WIRE 448 480 448 464
WIRE 704 480 704 464
WIRE 96 560 32 560
WIRE 256 560 96 560
WIRE 512 560 448 560
WIRE 704 560 640 560
WIRE 768 560 704 560
WIRE 848 560 784 560
WIRE 1088 560 1040 560
WIRE 1264 560 1216 560
WIRE 1488 560 1440 560
WIRE 1664 560 1616 560
WIRE 1840 560 1840 544
WIRE 2016 560 2016 544
WIRE 96 576 96 560
WIRE 256 576 256 560
WIRE 448 576 448 560
WIRE 704 576 704 560
WIRE 1040 576 1040 560
WIRE 1264 576 1264 560
WIRE 1440 576 1440 560
WIRE 1664 576 1664 560
WIRE 2192 576 2192 544
WIRE 848 592 848 560
WIRE 96 720 96 704
WIRE 256 720 256 704
WIRE 448 720 448 704
WIRE 704 720 704 704
WIRE 1040 720 1040 704
WIRE 1264 720 1264 704
WIRE 1440 720 1440 704
WIRE 1664 720 1664 704
WIRE 2192 720 2192 704
WIRE 96 800 32 800
WIRE 256 800 96 800
WIRE 96 816 96 800
WIRE 256 816 256 800
WIRE 96 960 96 944
WIRE 256 960 256 944
FLAG 96 240 0
FLAG 96 480 0
FLAG 32 80 Vp
FLAG 32 320 Vm
FLAG 448 480 0
FLAG 704 480 0
FLAG 848 352 0
FLAG 448 720 0
FLAG 704 720 0
FLAG 848 592 0
FLAG 1040 464 0
FLAG 1264 464 0
FLAG 1264 304 C
FLAG 1040 720 0
FLAG 1264 720 0
FLAG 1264 560 D
FLAG 1840 560 0
FLAG 2016 560 0
FLAG 2192 720 0
FLAG 2288 400 Vout
FLAG 96 720 0
FLAG 96 960 0
FLAG 32 560 Vref
FLAG 32 800 Vfb
FLAG 256 240 0
FLAG 256 480 0
FLAG 256 720 0
FLAG 256 960 0
FLAG 1440 464 0
FLAG 1664 464 0
FLAG 1664 304 E
FLAG 1440 720 0
FLAG 1664 720 0
FLAG 1664 560 F
SYMBOL cktsym\\resistor 96 160 R0
SYMATTR Value 6.62e12
SYMATTR InstName R1
SYMBOL cktsym\\resistor 96 400 R0
SYMATTR Value 6.62e12
SYMATTR InstName R2
SYMBOL cktsym\\capacitor 576 320 R270
WINDOW 3 -32 0 VBottom 2
WINDOW 0 32 0 VTop 2
SYMATTR Value 4n
SYMATTR InstName C1
SYMBOL cktsym\\depvsrc 448 400 R0
SYMATTR Value V=v(Vm) + v(Vfb)
SYMATTR InstName B1
SYMBOL cktsym\\depisrc 704 400 M180
WINDOW 3 48 -16 Left 2
WINDOW 0 48 16 Left 2
SYMATTR Value I=v(Vm) + v(Vfb)
SYMATTR InstName B2
SYMBOL cktsym\\ammeter1 768 320 R270
WINDOW 0 18 8 VTop 2
SYMATTR InstName VA
SYMBOL cktsym\\capacitor 576 560 R270
WINDOW 3 -32 0 VBottom 2
WINDOW 0 32 0 VTop 2
SYMATTR Value 4n
SYMATTR InstName C2
SYMBOL cktsym\\depvsrc 448 640 R0
SYMATTR Value V=v(Vp) + v(Vref)
SYMATTR InstName B3
SYMBOL cktsym\\depisrc 704 640 R0
SYMATTR Value I=v(Vp) + v(Vref)
SYMATTR InstName B4
SYMBOL cktsym\\ammeter1 768 560 R270
WINDOW 0 18 8 VTop 2
SYMATTR InstName VB
SYMBOL cktsym\\depvsrc 1040 384 R0
SYMATTR Value V=-59.77*(i(VA) + i(VB))
SYMATTR InstName B5
SYMBOL cktsym\\resistor 1152 304 R270
WINDOW 3 -12 0 VBottom 2
WINDOW 0 12 0 VTop 2
SYMATTR Value 1538
SYMATTR InstName R3
SYMBOL cktsym\\capacitor 1264 384 R0
SYMATTR Value 10µ
SYMATTR InstName C3
SYMBOL cktsym\\capacitor 1152 176 R270
WINDOW 3 -32 0 VBottom 2
WINDOW 0 32 0 VTop 2
SYMATTR Value 0.1083p
SYMATTR InstName C4
SYMBOL cktsym\\depvsrc 1040 640 R0
SYMATTR Value V=v(C)
SYMATTR InstName B6
SYMBOL cktsym\\resistor 1152 560 R270
WINDOW 3 -12 0 VBottom 2
WINDOW 0 12 0 VTop 2
SYMATTR Value 625
SYMATTR InstName R4
SYMBOL cktsym\\capacitor 1264 640 R0
SYMATTR Value 100p
SYMATTR InstName C5
SYMBOL cktsym\\depisrc 1840 480 M180
WINDOW 3 48 -16 Left 2
WINDOW 0 48 16 Left 2
SYMATTR Value I=v(F)
SYMATTR InstName B7
SYMBOL cktsym\\resistor 2016 480 R0
SYMATTR Value 901.6
SYMATTR InstName R5
SYMBOL cktsym\\capacitor 2192 480 R0
SYMATTR Value 2p
SYMATTR InstName C6
SYMBOL cktsym\\resistor 96 640 R0
SYMATTR Value 6.62e12
SYMATTR InstName R6
SYMBOL cktsym\\resistor 96 880 R0
SYMATTR Value 6.62e12
SYMATTR InstName R7
SYMBOL cktsym\\capacitor 256 160 R0
SYMATTR Value 6p
SYMATTR InstName C7
SYMBOL cktsym\\capacitor 256 400 R0
SYMATTR Value 6p
SYMATTR InstName C8
SYMBOL cktsym\\capacitor 256 640 R0
SYMATTR Value 6p
SYMATTR InstName C9
SYMBOL cktsym\\capacitor 256 880 R0
SYMATTR Value 6p
SYMATTR InstName C10
SYMBOL cktsym\\resistor 2192 640 R0
SYMATTR Value 1
SYMATTR InstName R8
SYMBOL cktsym\\depvsrc 1440 384 R0
SYMATTR Value V=v(D)
SYMATTR InstName B8
SYMBOL cktsym\\resistor 1552 304 R270
WINDOW 3 -12 0 VBottom 2
WINDOW 0 12 0 VTop 2
SYMATTR Value 588
SYMATTR InstName R9
SYMBOL cktsym\\capacitor 1664 384 R0
SYMATTR Value 10p
SYMATTR InstName C11
SYMBOL cktsym\\depvsrc 1440 640 R0
SYMATTR Value V=v(E)
SYMATTR InstName B9
SYMBOL cktsym\\resistor 1552 560 R270
WINDOW 3 -12 0 VBottom 2
WINDOW 0 12 0 VTop 2
SYMATTR Value 33.3
SYMATTR InstName R10
SYMBOL cktsym\\capacitor 1664 640 R0
SYMATTR Value 100f
SYMATTR InstName C12
