Version 4
SHEET 1 880 680
WIRE 224 -144 32 -144
WIRE 384 -144 304 -144
WIRE 640 -144 384 -144
WIRE 640 -48 640 -144
WIRE 640 16 624 16
WIRE 384 32 384 -16
WIRE 32 64 32 -144
WIRE 32 64 16 64
WIRE 160 64 32 64
WIRE 384 64 384 32
WIRE 160 192 160 64
WIRE 208 192 160 192
WIRE 384 192 288 192
WIRE 544 192 384 192
WIRE 624 192 624 16
WIRE 784 192 624 192
WIRE 864 192 864 -16
FLAG 0 448 0
FLAG -176 448 0
FLAG 0 320 Vss
FLAG -176 320 Vdd/2
FLAG -64 64 Vss
FLAG 160 0 Vdd/2
FLAG 272 112 0
FLAG 352 448 0
FLAG 352 320 Vdd
FLAG 272 -48 Vdd
FLAG 752 64 0
FLAG 752 -96 Vdd
SYMBOL res 32 48 R90
WINDOW 0 0 56 VBottom 2
WINDOW 3 32 56 VTop 2
SYMATTR InstName R1
SYMATTR Value 10k
SYMBOL cktsym\\opamprails 256 32 R0
SYMATTR InstName U1
SYMBOL cktsym\\vsource -176 384 R0
SYMATTR Value 1.65
SYMATTR InstName V1
SYMBOL cktsym\\vsource 0 384 R0
WINDOW 123 0 0 Left 0
WINDOW 39 0 0 Left 0
SYMATTR Value SINE(1.65 1.65 10)
SYMATTR InstName V2
SYMBOL cktsym\\vsource 352 384 R0
SYMATTR Value 3.3
SYMATTR InstName V3
SYMBOL cktsym\\diode 384 128 R180
WINDOW 3 44 -16 Left 2
WINDOW 0 44 16 Left 2
SYMATTR InstName D1
SYMBOL cktsym\\diode 384 -80 R180
WINDOW 3 44 -16 Left 2
WINDOW 0 44 16 Left 2
SYMATTR InstName D2
SYMBOL res 304 176 R90
WINDOW 0 0 56 VBottom 2
WINDOW 3 32 56 VTop 2
SYMATTR InstName R2
SYMATTR Value 10k
SYMBOL res 320 -160 R90
WINDOW 0 0 56 VBottom 2
WINDOW 3 32 56 VTop 2
SYMATTR InstName R3
SYMATTR Value 10k
SYMBOL res 640 176 R90
WINDOW 0 0 56 VBottom 2
WINDOW 3 32 56 VTop 2
SYMATTR InstName R4
SYMATTR Value 10k
SYMBOL res 880 176 R90
WINDOW 0 0 56 VBottom 2
WINDOW 3 32 56 VTop 2
SYMATTR InstName R5
SYMATTR Value 10k
SYMBOL cktsym\\opamprails 736 -16 R0
SYMATTR InstName U2
TEXT 504 384 Left 2 !.tran 0 1 0 startup
